@<TRIPOS>MOLECULE
HOKTUW
    74   120     2     0     0
SMALL
NO_CHARGES
****
Generated from the CSD

@<TRIPOS>ATOM
     1 C1      -0.5797   8.3004  -2.7984   C.3       1 RES1   0.0000
     2 C2       1.1876   7.5292  -3.4941   C.3       1 RES1   0.0000
     3 C3      -0.0008   9.2975  -4.3286   C.3       1 RES1   0.0000
     4 C5      -6.2794   7.9197   1.5805   C.3       1 RES1   0.0000
     5 C8      -5.2327   9.5318  -1.2387   C.3       1 RES1   0.0000
     6 O1      -1.5097   9.3198   0.7512   O.3       1 RES1   0.0000
     7 O2      -2.3245   8.0898   2.9077   O.3       1 RES1   0.0000
     8 O3      -0.3164   9.1358  -1.3654   O.3       1 RES1   0.0000
     9 O4      -4.0161   9.4691   1.4851   O.3       1 RES1   0.0000
    10 Si1     -0.0008   9.2975   0.2229   Si        1 RES1   0.0000
    11 Si2     -2.5178   9.3998   1.9988   Si        1 RES1   0.0000
    12 Si3      0.3237   8.7885  -2.8921   Si        1 RES1   0.0000
    13 Si4     -5.2133   9.2975   0.5569   Si        1 RES1   0.0000
    14 O3A      0.2979   9.1037  -1.3654   O.3       1 RES1   0.0000
    15 C1A      1.1530   9.2934  -2.7984   C.3       1 RES1   0.0000
    16 Si3A     0.2786   9.8317  -2.8921   Si        1 RES1   0.0000
    17 C1B     -0.5733  10.2974  -2.7984   C.3       1 RES1   0.0000
    18 O3B      0.0185   9.6518  -1.3654   O.3       1 RES1   0.0000
    19 Si2H    -1.3478   7.1679   3.7842   Si        1 RES1   0.0000
    20 O1H     -0.7746   8.0011   5.0318   O.3       1 RES1   0.0000
    21 Si1H    -0.0008   9.2966   5.5601   Si        1 RES1   0.0000
    22 O1G     -0.7351  10.6159   5.0318   O.3       1 RES1   0.0000
    23 Si2G    -1.1700  11.5289   3.7842   Si        1 RES1   0.0000
    24 O2G     -2.2077  10.7065   2.8753   O.3       1 RES1   0.0000
    25 O2B      0.1167  11.9137   2.9077   O.3       1 RES1   0.0000
    26 Si2B     1.3478  11.4262   1.9988   Si        1 RES1   0.0000
    27 O1B      0.7746  10.5931   0.7512   O.3       1 RES1   0.0000
    28 O1A      0.7351   7.9783   0.7512   O.3       1 RES1   0.0000
    29 Si2A     1.1700   7.0653   1.9988   Si        1 RES1   0.0000
    30 O2A      2.2077   7.8876   2.9077   O.3       1 RES1   0.0000
    31 Si2O     2.5178   9.1944   3.7842   Si        1 RES1   0.0000
    32 O1O      1.5097   9.2743   5.0318   O.3       1 RES1   0.0000
    33 O3O      0.3164   9.4584   7.1484   O.3       1 RES1   0.0000
    34 C1O      0.5797  10.2937   8.5814   C.3       1 RES1   0.0000
    35 Si3O    -0.3237   9.8056   8.6751   Si        1 RES1   0.0000
    36 C1H      0.5733   8.2967   8.5814   C.3       1 RES1   0.0000
    37 O3H     -0.0185   8.9424   7.1484   O.3       1 RES1   0.0000
    38 O3G     -0.2979   9.4905   7.1484   O.3       1 RES1   0.0000
    39 C1G     -1.1530   9.3008   8.5814   C.3       1 RES1   0.0000
    40 Si3G    -0.2786   8.7625   8.6751   Si        1 RES1   0.0000
    41 Si3H     0.6023   9.3231   8.6751   Si        1 RES1   0.0000
    42 C2G     -0.9372   7.3847   9.2771   C.3       1 RES1   0.0000
    43 C3G      0.0000   9.2980  10.1116   C.3       1 RES1   0.0000
    44 C2O     -1.1876  11.0649   9.2771   C.3       1 RES1   0.0000
    45 C2H      2.1248   9.4416   9.2771   C.3       1 RES1   0.0000
    46 O2O      2.3245  10.5043   2.8753   O.3       1 RES1   0.0000
    47 O4B      2.1570  12.6891   1.4851   O.3       1 RES1   0.0000
    48 Si4B     2.6071  13.8117   0.5569   Si        1 RES1   0.0000
    49 C5B      1.9469  15.4238   1.5805   C.3       1 RES1   0.0000
    50 C8B      2.8196  13.7113  -1.2387   C.3       1 RES1   0.0000
    51 O4O      4.0161   9.1251   4.2979   O.3       1 RES1   0.0000
    52 Si4O     5.2133   9.2966   5.2261   Si        1 RES1   0.0000
    53 C5O      6.2794  10.6744   4.2025   C.3       1 RES1   0.0000
    54 C8O      5.2327   9.0623   7.0217   C.3       1 RES1   0.0000
    55 O2H     -0.1167   6.6804   2.8753   O.3       1 RES1   0.0000
    56 O4H     -2.1570   5.9050   4.2979   O.3       1 RES1   0.0000
    57 Si4H    -2.6071   4.7824   5.2261   Si        1 RES1   0.0000
    58 C5H     -1.9469   3.1703   4.2025   C.3       1 RES1   0.0000
    59 C8H     -2.8196   4.8828   7.0217   C.3       1 RES1   0.0000
    60 O4A      1.8591   5.7330   1.4851   O.3       1 RES1   0.0000
    61 Si4A     2.6063   4.7819   0.5569   Si        1 RES1   0.0000
    62 C5A      4.3325   4.5477   1.5805   C.3       1 RES1   0.0000
    63 C8A      2.4130   4.6481  -1.2387   C.3       1 RES1   0.0000
    64 Si3B    -0.6023   9.2710  -2.8921   Si        1 RES1   0.0000
    65 C2A      0.9372  11.2095  -3.4941   C.3       1 RES1   0.0000
    66 C2B     -2.1248   9.1525  -3.4941   C.3       1 RES1   0.0000
    67 O4G     -1.8591  12.8611   4.2979   O.3       1 RES1   0.0000
    68 Si4G    -2.6063  13.8122   5.2261   Si        1 RES1   0.0000
    69 C5G     -4.3325  14.0465   4.2025   C.3       1 RES1   0.0000
    70 C8G     -2.4130  13.9461   7.0217   C.3       1 RES1   0.0000
    71 C4?     -4.2045   9.0563  -1.4885   C.3       2 RES2   0.0000
    72 C6?     -5.4943   8.3004  -0.0538   C.3       2 RES2   0.0000
    73 C7?     -6.6191   8.8039   0.6020   C.3       2 RES2   0.0000
    74 C9?     -6.1530   9.9934  -0.2203   C.3       2 RES2   0.0000
@<TRIPOS>BOND
     1     1     8    1
     2     2    12    1
     3     3    12    1
     4     4    13    1
     5     5    13    1
     6     6    10    1
     7     7    11    1
     8     8    10    1
     9     9    11    1
    10    10    14    1
    11    11     6    1
    12    12     1    1
    13    13     9    1
    14    14     8    1
    15    15    12    1
    16    16     1    1
    17    17    12    1
    18    18     8    1
    19    19     7    1
    20    20    19    1
    21    21    20    1
    22    22    21    1
    23    23    22    1
    24    24    11    1
    25    25    23    1
    26    26    25    1
    27    27    10    1
    28    28    10    1
    29    29    28    1
    30    30    29    1
    31    31    30    1
    32    32    21    1
    33    33    21    1
    34    34    33    1
    35    35    33    1
    36    36    35    1
    37    37    21    1
    38    38    21    1
    39    39    35    1
    40    40    33    1
    41    41    33    1
    42    42    40    1
    43    43    35    1
    44    44    35    1
    45    45    41    1
    46    46    26    1
    47    47    26    1
    48    48    47    1
    49    49    48    1
    50    50    48    1
    51    51    31    1
    52    52    51    1
    53    53    52    1
    54    54    52    1
    55    55    19    1
    56    56    19    1
    57    57    56    1
    58    58    57    1
    59    59    57    1
    60    60    29    1
    61    61    60    1
    62    62    61    1
    63    63    61    1
    64    64     1    1
    65    65    16    1
    66    66    64    1
    67    67    23    1
    68    68    67    1
    69    69    68    1
    70    70    68    1
    71     3    16    1
    72     3    64    1
    73     8    12    1
    74     8    64    1
    75     8    16    1
    76    10    18    1
    77    12    14    1
    78    12    18    1
    79    12    16   un
    80    12    64   un
    81    14    15    1
    82    14    18    1
    83    14    16    1
    84    14    64    1
    85    15    16    1
    86    15    64    1
    87    16    18    1
    88    16    17    1
    89    16    64   un
    90    17    18    1
    91    17    64    1
    92    18    64    1
    93    23    24    1
    94    26    27    1
    95    29    55    1
    96    31    32    1
    97    31    46    1
    98    33    38    1
    99    33    37    1
   100    34    35    1
   101    34    41    1
   102    34    40    1
   103    35    38    1
   104    35    37    1
   105    35    40   un
   106    35    41   un
   107    36    37    1
   108    36    41    1
   109    36    40    1
   110    37    38    1
   111    37    40    1
   112    37    41    1
   113    38    39    1
   114    38    40    1
   115    38    41    1
   116    39    40    1
   117    39    41    1
   118    40    43    1
   119    40    41   un
   120    41    43    1
@<TRIPOS>SUBSTRUCTURE
     1 RES1        1 GROUP             0 ****  ****    0  
     2 RES2       71 GROUP             0 ****  ****    0  
@<TRIPOS>CRYSIN
   16.1030   16.1030   17.3490   90.0000   90.0000  120.0000   233     1

