@<TRIPOS>MOLECULE
HOKTIK
   100   100     2     0     0
SMALL
NO_CHARGES
****
Generated from the CSD

@<TRIPOS>ATOM
     1 C1       4.5559  10.0990   4.8673   C.2       1 RES1   0.0000
     2 C2       5.3869   7.3192   4.1981   C.2       1 RES1   0.0000
     3 C3       6.5036   8.8583   2.8741   C.2       1 RES1   0.0000
     4 C5       5.5690  13.9582   3.3224   C.2       1 RES1   0.0000
     5 C6       7.2845  14.1603   0.7639   C.2       1 RES1   0.0000
     6 C7       5.6283  15.8731   0.9453   C.2       1 RES1   0.0000
     7 C9      -2.0512   9.4555   5.9612   C.3       1 RES1   0.0000
     8 H1      -2.7268   9.1964   5.3367   H         1 RES1   0.0000
     9 H2      -2.4552   9.8707   6.7317   H         1 RES1   0.0000
    10 H3      -1.5589   8.6803   6.2452   H         1 RES1   0.0000
    11 C10      0.4576  11.2252   5.9152   C.3       1 RES1   0.0000
    12 H4       0.9031  11.7770   5.2657   H         1 RES1   0.0000
    13 H5       1.0373  10.5116   6.1926   H         1 RES1   0.0000
    14 H6       0.2287  11.7594   6.6791   H         1 RES1   0.0000
    15 C11     -2.0696  12.0650   5.3446   C.3       1 RES1   0.0000
    16 H7      -1.6966  12.7773   4.8252   H         1 RES1   0.0000
    17 H8      -2.1329  12.3361   6.2623   H         1 RES1   0.0000
    18 H9      -2.9506  11.8594   5.0224   H         1 RES1   0.0000
    19 C12      1.3525   4.7600  -2.0392   C.3       1 RES1   0.0000
    20 H10      1.3227   4.9423  -1.0965   H         1 RES1   0.0000
    21 H11      1.9555   4.0347  -2.2088   H         1 RES1   0.0000
    22 H12      0.4771   4.5200  -2.3403   H         1 RES1   0.0000
    23 C13      3.4270   5.9497  -3.8576   C.3       1 RES1   0.0000
    24 H13      3.8477   6.8098  -3.9443   H         1 RES1   0.0000
    25 H14      3.2070   5.6070  -4.7266   H         1 RES1   0.0000
    26 H15      4.0300   5.3468  -3.4184   H         1 RES1   0.0000
    27 C14      0.7303   6.6744  -4.1402   C.3       1 RES1   0.0000
    28 H16      1.2278   7.0948  -4.8489   H         1 RES1   0.0000
    29 H17      0.1097   7.3064  -3.7695   H         1 RES1   0.0000
    30 H18      0.2436   5.9211  -4.4834   H         1 RES1   0.0000
    31 O1       3.4310  11.0019   1.2306   O.3       1 RES1   0.0000
    32 O2       1.3460   9.8896   2.3272   O.3       1 RES1   0.0000
    33 O3       2.4447   8.7613   0.2577   O.3       1 RES1   0.0000
    34 O4       2.1340  13.2455   1.0084   O.3       1 RES1   0.0000
    35 O5       3.2649  12.1532  -1.0899   O.3       1 RES1   0.0000
    36 O6       0.0366  12.1280   2.0800   O.3       1 RES1   0.0000
    37 O7       3.6726   8.7546   2.5428   O.3       1 RES1   0.0000
    38 O8       4.7325  13.1928   0.7744   O.3       1 RES1   0.0000
    39 O9      -0.8651  10.2757   3.6630   O.3       1 RES1   0.0000
    40 O10      2.1013   7.3539  -1.8854   O.3       1 RES1   0.0000
    41 Si1      2.7347   9.5966   1.5922   Si        1 RES1   0.0000
    42 Si2      3.4098  12.4092   0.4773   Si        1 RES1   0.0000
    43 Si3     -0.1110  10.5617   2.3035   Si        1 RES1   0.0000
    44 Si4      1.7428   8.7260  -1.1820   Si        1 RES1   0.0000
    45 Si5      4.8391   8.7122   3.6432   Si        1 RES1   0.0000
    46 Si7      5.7858  14.1612   1.4160   Si        1 RES1   0.0000
    47 Si9     -0.9867  10.5654   5.2170   Si        1 RES1   0.0000
    48 Si10     1.8731   6.1186  -2.8465   Si        1 RES1   0.0000
    49 Si4A     0.5631  13.3619   1.1820   Si        1 RES1   0.0000
    50 O3A     -0.1387  13.3266  -0.2577   O.3       1 RES1   0.0000
    51 Si1A    -0.4287  12.4913  -1.5922   Si        1 RES1   0.0000
    52 O1A     -1.1250  11.0860  -1.2306   O.3       1 RES1   0.0000
    53 Si2A    -1.1038   9.6788  -0.4773   Si        1 RES1   0.0000
    54 O4A      0.1720   8.8425  -1.0084   O.3       1 RES1   0.0000
    55 O5A     -0.9589   9.9348   1.0899   O.3       1 RES1   0.0000
    56 O8A     -2.4266   8.8952  -0.7744   O.3       1 RES1   0.0000
    57 Si7A    -3.4798   7.9268  -1.4160   Si        1 RES1   0.0000
    58 C5A     -3.2631   8.1298  -3.3224   C.2       1 RES1   0.0000
    59 C6A     -4.9785   7.9277  -0.7639   C.2       1 RES1   0.0000
    60 C7A     -3.3224   6.2149  -0.9453   C.2       1 RES1   0.0000
    61 O10A     0.2046  14.7340   1.8854   O.3       1 RES1   0.0000
    62 Si10A    0.4328  15.9694   2.8465   Si        1 RES1   0.0000
    63 C12A     0.9535  17.3280   2.0392   C.3       1 RES1   0.0000
    64 H10A     0.9832  17.1456   1.0965   H         1 RES1   0.0000
    65 H11A     0.3504  18.0532   2.2088   H         1 RES1   0.0000
    66 H12A     1.8289  17.5679   2.3403   H         1 RES1   0.0000
    67 C13A    -1.1211  16.1382   3.8576   C.3       1 RES1   0.0000
    68 H13A    -1.5417  15.2781   3.9443   H         1 RES1   0.0000
    69 H14A    -0.9010  16.4810   4.7266   H         1 RES1   0.0000
    70 H15A    -1.7241  16.7412   3.4184   H         1 RES1   0.0000
    71 C14A     1.5757  15.4135   4.1402   C.3       1 RES1   0.0000
    72 H16A     1.0781  14.9932   4.8489   H         1 RES1   0.0000
    73 H17A     2.1962  14.7815   3.7695   H         1 RES1   0.0000
    74 H18A     2.0624  16.1669   4.4834   H         1 RES1   0.0000
    75 O6A      2.2693   9.9599  -2.0800   O.3       1 RES1   0.0000
    76 Si3A     2.4169  11.5262  -2.3035   Si        1 RES1   0.0000
    77 O2A      0.9599  12.1983  -2.3272   O.3       1 RES1   0.0000
    78 O7A     -1.3667  13.3333  -2.5428   O.3       1 RES1   0.0000
    79 Si5A    -2.5332  13.3757  -3.6432   Si        1 RES1   0.0000
    80 C1A     -2.2500  11.9890  -4.8673   C.2       1 RES1   0.0000
    81 C2A     -3.0809  14.7688  -4.1981   C.2       1 RES1   0.0000
    82 C3A     -4.1977  13.2296  -2.8741   C.2       1 RES1   0.0000
    83 O9A      3.1711  11.8123  -3.6630   O.3       1 RES1   0.0000
    84 Si9A     3.2927  11.5225  -5.2170   Si        1 RES1   0.0000
    85 C9A      4.3572  12.6324  -5.9612   C.3       1 RES1   0.0000
    86 H1A      5.0328  12.8916  -5.3367   H         1 RES1   0.0000
    87 H2A      4.7611  12.2172  -6.7317   H         1 RES1   0.0000
    88 H3A      3.8648  13.4077  -6.2452   H         1 RES1   0.0000
    89 C10A     1.8484  10.8627  -5.9152   C.3       1 RES1   0.0000
    90 H4A      1.4029  10.3109  -5.2657   H         1 RES1   0.0000
    91 H5A      1.2687  11.5764  -6.1926   H         1 RES1   0.0000
    92 H6A      2.0772  10.3285  -6.6791   H         1 RES1   0.0000
    93 C11A     4.3756  10.0230  -5.3446   C.3       1 RES1   0.0000
    94 H7A      4.0026   9.3107  -4.8252   H         1 RES1   0.0000
    95 H8A      4.4388   9.7519  -6.2623   H         1 RES1   0.0000
    96 H9A      5.2566  10.2286  -5.0224   H         1 RES1   0.0000
    97 C4?      2.9712   7.4647   5.0264   C.3       2 RES2   0.0000
    98 C8?      7.2591  12.2059   1.5685   C.3       2 RES2   0.0000
    99 Si6?     4.1381   8.4376   4.0679   Si        2 RES2   0.0000
   100 Si8?     6.1199  13.4599   1.5606   Si        2 RES2   0.0000
@<TRIPOS>BOND
     1     1    45    1
     2     2    45    1
     3     3    45    1
     4     4    46    1
     5     5    46    1
     6     6    46    1
     7     7     8    1
     8     9     7    1
     9    10     7    1
    10    11    12    1
    11    13    11    1
    12    14    11    1
    13    15    16    1
    14    17    15    1
    15    18    15    1
    16    19    20    1
    17    21    19    1
    18    22    19    1
    19    23    24    1
    20    25    23    1
    21    26    23    1
    22    27    28    1
    23    29    27    1
    24    30    27    1
    25    31    41    1
    26    32    41    1
    27    33    41    1
    28    34    42    1
    29    35    42    1
    30    36    43    1
    31    37    41    1
    32    38    42    1
    33    39    43    1
    34    40    44    1
    35    42    31    1
    36    43    32    1
    37    44    33    1
    38    45    37    1
    39    46    38    1
    40    47     7    1
    41    48    19    1
    42    49    34    1
    43    50    49    1
    44    51    50    1
    45    52    51    1
    46    53    52    1
    47    54    44    1
    48    55    43    1
    49    56    53    1
    50    57    56    1
    51    58    57    1
    52    59    57    1
    53    60    57    1
    54    61    49    1
    55    62    61    1
    56    63    62    1
    57    64    63    1
    58    65    63    1
    59    66    63    1
    60    67    62    1
    61    68    67    1
    62    69    67    1
    63    70    67    1
    64    71    62    1
    65    72    71    1
    66    73    71    1
    67    74    71    1
    68    75    44    1
    69    76    35    1
    70    77    51    1
    71    78    51    1
    72    79    78    1
    73    80    79    1
    74    81    79    1
    75    82    79    1
    76    83    76    1
    77    84    83    1
    78    85    84    1
    79    86    85    1
    80    87    85    1
    81    88    85    1
    82    89    84    1
    83    90    89    1
    84    91    89    1
    85    92    89    1
    86    93    84    1
    87    94    93    1
    88    95    93    1
    89    96    93    1
    90    11    47    1
    91    15    47    1
    92    23    48    1
    93    27    48    1
    94    36    49    1
    95    39    47    1
    96    40    48    1
    97    53    54    1
    98    53    55    1
    99    75    76    1
   100    76    77    1
@<TRIPOS>SUBSTRUCTURE
     1 RES1        1 GROUP             0 ****  ****    0  
     2 RES2       97 GROUP             0 ****  ****    0  
@<TRIPOS>CRYSIN
   11.0460   11.1040   13.5540   77.6800   82.0800   84.0400     2     1

